@<TRIPOS>MOLECULE
*****
 47 49 0 0 0
SMALL
GASTEIGER

@<TRIPOS>ATOM
      1 C           3.2487   -1.4840    1.0155 C.ar    1  UNL1        0.1205
      2 N           2.6622   -2.4623    0.2886 N.ar    1  UNL1       -0.2188
      3 C           1.7335   -2.1092   -0.6300 C.ar    1  UNL1        0.1472
      4 C           1.3906   -0.7463   -0.7500 C.ar    1  UNL1        0.1473
      5 C           2.1064    0.1471    0.0336 C.ar    1  UNL1        0.1674
      6 N           3.0529   -0.1490    0.9424 N.ar    1  UNL1       -0.2159
      7 N           1.6833    1.3983   -0.3544 N.ar    1  UNL1       -0.2855
      8 C           0.6609    1.2099   -1.2463 C.ar    1  UNL1        0.1004
      9 N           0.4708   -0.0738   -1.5212 N.ar    1  UNL1       -0.2306
     10 C           2.3079    2.6470    0.0664 C.3     1  UNL1        0.1667
     11 C           1.6793    3.3069    1.2949 C.3     1  UNL1        0.1285
     12 C           1.6844    4.8061    0.9529 C.3     1  UNL1        0.1135
     13 C           2.4241    4.9548   -0.4041 C.3     1  UNL1        0.1134
     14 O           2.3322    3.6281   -0.9997 O.3     1  UNL1       -0.3456
     15 C           3.9056    5.4949   -0.2477 C.3     1  UNL1        0.0879
     16 O           4.6264    5.9516   -1.4230 O.3     1  UNL1       -0.2837
     17 P           6.2648    5.9625   -1.3752 P.3     1  UNL1        0.4835
     18 O           6.8362    5.2425   -0.1887 O.2     1  UNL1       -0.2269
     19 O           6.5899    5.0734   -2.6773 O.3     1  UNL1       -0.3022
     20 O           7.0843    7.3452   -1.7423 O.3     1  UNL1       -0.1858
     21 P           6.3428    8.8569   -1.3449 P.3     1  UNL1        0.4918
     22 O           5.1698    8.5130   -2.2429 O.2     1  UNL1       -0.2265
     23 O           6.1377    8.3549    0.1883 O.3     1  UNL1       -0.3019
     24 O           5.6013   10.3685   -0.9474 O.3     1  UNL1       -0.1859
     25 P           4.1537   10.6492   -0.3752 P.3     1  UNL1        0.4808
     26 O           4.0090   10.6255    1.1117 O.2     1  UNL1       -0.2271
     27 O           3.7975   12.0700   -1.0193 O.3     1  UNL1       -0.3023
     28 O           3.0599    9.7729   -1.1202 O.3     1  UNL1       -0.3023
     29 O           2.2205    5.6259    1.9840 O.3     1  UNL1       -0.3864
     30 O           2.3835    3.0611    2.5204 O.3     1  UNL1       -0.3847
     31 N           1.1885   -3.1203   -1.4120 N.pl3   1  UNL1       -0.3413
     32 H           3.9770   -1.8203    1.7461 H       1  UNL1        0.1048
     33 H           0.1017    2.0262   -1.6871 H       1  UNL1        0.1030
     34 H           3.3595    2.3991    0.2636 H       1  UNL1        0.0866
     35 H           0.6474    2.9654    1.4541 H       1  UNL1        0.0665
     36 H           0.6384    5.1128    0.8214 H       1  UNL1        0.0647
     37 H           1.8575    5.6344   -1.0529 H       1  UNL1        0.0647
     38 H           4.4828    4.6963    0.2212 H       1  UNL1        0.0592
     39 H           3.8807    6.3650    0.4133 H       1  UNL1        0.0592
     40 H           6.9103    4.1977   -2.4058 H       1  UNL1        0.2220
     41 H           6.8789    8.5934    0.7774 H       1  UNL1        0.2220
     42 H           3.7463   11.9748   -2.0015 H       1  UNL1        0.2220
     43 H           2.2517    9.6875   -0.5854 H       1  UNL1        0.2220
     44 H           2.8702    5.0989    2.4869 H       1  UNL1        0.2100
     45 H           3.3303    2.9216    2.3461 H       1  UNL1        0.2101
     46 H           1.3177   -4.0457   -1.0219 H       1  UNL1        0.1438
     47 H           0.3099   -2.8953   -1.8549 H       1  UNL1        0.1438
@<TRIPOS>BOND
     1     1     2   ar
     2     2     3   ar
     3     3     4   ar
     4     4     5   ar
     5     5     6   ar
     6     1     6   ar
     7     5     7   ar
     8     7     8   ar
     9     8     9   ar
    10     4     9   ar
    11     7    10    1
    12    10    11    1
    13    11    12    1
    14    12    13    1
    15    13    14    1
    16    10    14    1
    17    13    15    1
    18    15    16    1
    19    16    17    1
    20    17    18    2
    21    17    19    1
    22    17    20    1
    23    20    21    1
    24    21    22    2
    25    21    23    1
    26    21    24    1
    27    24    25    1
    28    25    26    2
    29    25    27    1
    30    25    28    1
    31    12    29    1
    32    11    30    1
    33     3    31    1
    34     1    32    1
    35     8    33    1
    36    10    34    1
    37    11    35    1
    38    12    36    1
    39    13    37    1
    40    15    38    1
    41    15    39    1
    42    19    40    1
    43    23    41    1
    44    27    42    1
    45    28    43    1
    46    29    44    1
    47    30    45    1
    48    31    46    1
    49    31    47    1
